/*--------------------------------*- C++ -*----------------------------------*\
  =========                 |
  \\      /  F ield         | OpenFOAM: The Open Source CFD Toolbox
   \\    /   O peration     | Website:  https://openfoam.org
    \\  /    A nd           | Version:  8
     \\/     M anipulation  |
\*---------------------------------------------------------------------------*/
FoamFile
{
    version     2.0;
    format      binary;
    class       polyBoundaryMesh;
    location    "constant/polyMesh";
    object      boundary;
}
// * * * * * * * * * * * * * * * * * * * * * * * * * * * * * * * * * * * * * //

3
(
    inlet
    {
        type            wall;
        inGroups        List<word> 1(wall);
        nFaces          2328;
        startFace       3108169;
    }
    outlet
    {
        type            wall;
        inGroups        List<word> 1(wall);
        nFaces          2896;
        startFace       3110497;
    }
    wall
    {
        type            wall;
        inGroups        List<word> 1(wall);
        nFaces          207197;
        startFace       3113393;
    }
)

// ************************************************************************* //
